34Bus/Test runs/20_Switching/ieee34-1_VLN_Node.Txt

LINE-GROUND and LINE-LINE VOLTAGES BY BUS & NODE

Bus       Node    VLN (kV)   Angle      pu     Base kV    Node-Node   VLL (kV)  Angle      pu

SOURCEBUS 1       41.829 /_   30.0      1.05    69.000        1-2      72.45 /_   60.0      1.05
   -      2       41.829 /_  -90.0      1.05    69.000        2-3      72.45 /_  -60.0      1.05
   -      3       41.829 /_  150.0      1.05    69.000        3-1      72.45 /_  180.0      1.05
800 ..... 1       15.095 /_    0.0      1.05    24.900        1-2     26.145 /_   30.0      1.05
   -      2       15.095 /_ -120.0      1.05    24.900        2-3     26.145 /_  -90.0      1.05
   -      3       15.095 /_  120.0      1.05    24.900        3-1     26.145 /_  150.0      1.05
802 ..... 1       15.067 /_   -0.1     1.048    24.900        1-2      26.11 /_   30.0    1.0486
   -      2        15.08 /_ -120.1     1.049    24.900        2-3     26.118 /_  -90.1    1.0489
   -      3        15.08 /_  120.0     1.049    24.900        3-1     26.108 /_  149.9    1.0485
806 ..... 1       15.048 /_   -0.1    1.0467    24.900        1-2     26.086 /_   29.9    1.0476
   -      2       15.071 /_ -120.1    1.0483    24.900        2-3       26.1 /_  -90.1    1.0482
   -      3        15.07 /_  119.9    1.0483    24.900        3-1     26.084 /_  149.9    1.0476
808 ..... 1       14.694 /_   -0.8    1.0221    24.900        1-2     25.657 /_   29.4    1.0304
   -      2       14.914 /_ -120.9    1.0374    24.900        2-3     25.789 /_  -90.8    1.0357
   -      3         14.9 /_  119.3    1.0364    24.900        3-1     25.642 /_  149.1    1.0298
810 ..... 2       14.912 /_ -120.9    1.0373    24.900
812 ..... 1       14.281 /_   -1.6   0.99342    24.900        1-2     25.164 /_   28.8    1.0106
   -      2       14.747 /_ -121.8    1.0258    24.900        2-3     25.439 /_  -91.6    1.0217
   -      3       14.695 /_  118.7    1.0222    24.900        3-1     25.129 /_  148.1    1.0092
814 ..... 1       13.954 /_   -2.3   0.97065    24.900        1-2      24.77 /_   28.4   0.99478
   -      2       14.615 /_ -122.5    1.0166    24.900        2-3     25.161 /_  -92.3    1.0105
   -      3       14.531 /_  118.1    1.0108    24.900        3-1     24.722 /_  147.3   0.99284
814R .... 1       14.737 /_   -2.3    1.0251    24.900        1-2     25.524 /_   27.6    1.0251
   -      2       14.706 /_ -122.5    1.0229    24.900        2-3     25.317 /_  -92.3    1.0167
   -      3       14.621 /_  118.1     1.017    24.900        3-1     25.478 /_  148.0    1.0232
850 ..... 1       14.737 /_   -2.3    1.0251    24.900        1-2     25.524 /_   27.6    1.0251
   -      2       14.706 /_ -122.5    1.0229    24.900        2-3     25.317 /_  -92.3    1.0167
   -      3       14.621 /_  118.1     1.017    24.900        3-1     25.478 /_  148.0    1.0232
816 ..... 1       14.732 /_   -2.3    1.0248    24.900        1-2     25.518 /_   27.6    1.0248
   -      2       14.703 /_ -122.5    1.0228    24.900        2-3     25.312 /_  -92.3    1.0166
   -      3       14.618 /_  118.1    1.0168    24.900        3-1     25.472 /_  148.0     1.023
818 ..... 1       14.719 /_   -2.3    1.0238    24.900
824 ..... 1        14.64 /_   -2.5    1.0184    24.900        1-2     25.367 /_   27.4    1.0188
   -      2       14.607 /_ -122.8    1.0161    24.900        2-3     25.161 /_  -92.5    1.0105
   -      3       14.534 /_  117.8     1.011    24.900        3-1     25.304 /_  147.8    1.0162
820 ..... 1        14.38 /_   -2.4    1.0003    24.900
822 ..... 1       14.337 /_   -2.4   0.99728    24.900
826 ..... 2       14.604 /_ -122.8    1.0159    24.900
828 ..... 1       14.633 /_   -2.5    1.0179    24.900        1-2     25.356 /_   27.3    1.0183
   -      2         14.6 /_ -122.8    1.0156    24.900        2-3     25.149 /_  -92.6      1.01
   -      3       14.527 /_  117.8    1.0105    24.900        3-1     25.291 /_  147.8    1.0157
830 ..... 1       14.452 /_   -2.8    1.0053    24.900        1-2     25.074 /_   27.0     1.007
   -      2       14.437 /_ -123.2    1.0042    24.900        2-3     24.869 /_  -93.1   0.99876
   -      3       14.357 /_  117.3    0.9987    24.900        3-1     24.961 /_  147.4    1.0024
854 ..... 1       14.448 /_   -2.8     1.005    24.900        1-2     25.067 /_   27.0    1.0067
   -      2       14.433 /_ -123.2    1.0039    24.900        2-3     24.862 /_  -93.1   0.99848
   -      3       14.353 /_  117.3   0.99841    24.900        3-1     24.953 /_  147.4    1.0021
832 ..... 1       15.021 /_   -3.4    1.0449    24.900        1-2     25.959 /_   26.1    1.0425
   -      2       14.852 /_ -124.1    1.0331    24.900        2-3      25.67 /_  -93.9    1.0309
   -      3       14.848 /_  116.3    1.0328    24.900        3-1      25.83 /_  146.7    1.0373
858 ..... 1       14.997 /_   -3.4    1.0432    24.900        1-2     25.922 /_   26.0     1.041
   -      2       14.829 /_ -124.2    1.0315    24.900        2-3     25.633 /_  -94.0    1.0294
   -      3       14.826 /_  116.2    1.0313    24.900        3-1     25.784 /_  146.6    1.0355
834 ..... 1       14.969 /_   -3.5    1.0413    24.900        1-2     25.879 /_   25.9    1.0393
   -      2       14.802 /_ -124.3    1.0297    24.900        2-3     25.591 /_  -94.1    1.0278
   -      3       14.801 /_  116.1    1.0295    24.900        3-1     25.731 /_  146.5    1.0334
860 ..... 1       14.963 /_   -3.5    1.0409    24.900        1-2      25.87 /_   25.9    1.0389
   -      2       14.797 /_ -124.3    1.0293    24.900        2-3     25.583 /_  -94.1    1.0274
   -      3       14.796 /_  116.1    1.0292    24.900        3-1     25.721 /_  146.5     1.033
842 ..... 1       14.969 /_   -3.5    1.0412    24.900        1-2     25.878 /_   25.9    1.0393
   -      2       14.802 /_ -124.3    1.0296    24.900        2-3     25.591 /_  -94.1    1.0277
   -      3         14.8 /_  116.1    1.0295    24.900        3-1      25.73 /_  146.5    1.0333
836 ..... 1       14.961 /_   -3.5    1.0407    24.900        1-2     25.864 /_   25.9    1.0387
   -      2       14.792 /_ -124.3    1.0289    24.900        2-3     25.577 /_  -94.1    1.0272
   -      3       14.794 /_  116.1    1.0291    24.900        3-1     25.716 /_  146.5    1.0328
840 ..... 1        14.96 /_   -3.5    1.0407    24.900        1-2     25.863 /_   25.9    1.0387
   -      2       14.791 /_ -124.3    1.0289    24.900        2-3     25.576 /_  -94.1    1.0271
   -      3       14.794 /_  116.1    1.0291    24.900        3-1     25.716 /_  146.5    1.0328
862 ..... 1       14.961 /_   -3.5    1.0407    24.900        1-2     25.863 /_   25.9    1.0387
   -      2       14.791 /_ -124.3    1.0289    24.900        2-3     25.576 /_  -94.1    1.0272
   -      3       14.794 /_  116.1    1.0291    24.900        3-1     25.716 /_  146.5    1.0328
844 ..... 1       14.968 /_   -3.6    1.0412    24.900        1-2     25.876 /_   25.9    1.0392
   -      2         14.8 /_ -124.3    1.0295    24.900        2-3     25.588 /_  -94.1    1.0276
   -      3       14.799 /_  116.0    1.0294    24.900        3-1     25.728 /_  146.4    1.0333
846 ..... 1       14.972 /_   -3.6    1.0415    24.900        1-2     25.881 /_   25.8    1.0394
   -      2       14.802 /_ -124.3    1.0296    24.900        2-3     25.595 /_  -94.2    1.0279
   -      3       14.804 /_  116.0    1.0298    24.900        3-1     25.736 /_  146.4    1.0336
848 ..... 1       14.973 /_   -3.6    1.0415    24.900        1-2     25.882 /_   25.8    1.0394
   -      2       14.802 /_ -124.4    1.0296    24.900        2-3     25.596 /_  -94.2    1.0279
   -      3       14.805 /_  116.0    1.0298    24.900        3-1     25.737 /_  146.4    1.0336
852R .... 1       15.021 /_   -3.4    1.0449    24.900        1-2     25.959 /_   26.1    1.0425
   -      2       14.852 /_ -124.1    1.0331    24.900        2-3      25.67 /_  -93.9    1.0309
   -      3       14.848 /_  116.3    1.0328    24.900        3-1      25.83 /_  146.7    1.0373
888 ..... 1       2.4488 /_   -4.4    1.0196     4.160        1-2      4.232 /_   25.0    1.0173
   -      2       2.4208 /_ -125.1    1.0079     4.160        2-3     4.1842 /_  -94.9    1.0058
   -      3       2.4204 /_  115.3    1.0078     4.160        3-1     4.2105 /_  145.6    1.0121
856 ..... 2       14.431 /_ -123.2    1.0038    24.900
852 ..... 1       14.138 /_   -3.4   0.98347    24.900        1-2     24.578 /_   26.3   0.98708
   -      2       14.145 /_ -124.0   0.98396    24.900        2-3     24.376 /_  -94.0   0.97898
   -      3       14.058 /_  116.3   0.97788    24.900        3-1     24.383 /_  146.6   0.97925
864 ..... 1       14.997 /_   -3.4    1.0432    24.900
838 ..... 2       14.789 /_ -124.3    1.0287    24.900
890 ..... 1       2.3093 /_   -4.8   0.96148     4.160        1-2     4.0079 /_   24.6   0.96344
   -      2       2.2953 /_ -125.9   0.95569     4.160        2-3     3.9537 /_  -95.7   0.95042
   -      3       2.2821 /_  114.7   0.95018     4.160        3-1     3.9664 /_  145.1   0.95347
